Circuit: *** SPICE deck for cell buffer{sch} from library pixel

Ignoring BSIM parameter XL
Ignoring BSIM parameter XW
Warning: Pd = 0 is less than W.
Warning: Ps = 0 is less than W.

Date: Mon Feb 10 23:54:39 2020
Total elapsed time: 0.348 seconds.

tnom = 27
temp = 27
method = trap
totiter = 10004
traniter = 0
tranpoints = 0
accept = 0
rejected = 0
matrix size = 6
fillins = 0
solver = Normal
Matrix Compiler1: 236 bytes object code size  0.1/0.1/[0.0]
Matrix Compiler2: 364 bytes object code size  0.1/0.1/[0.1]


