Circuit: *** SPICE deck for cell dff{sch} from library pixel

Ignoring BSIM parameter XL
Ignoring BSIM parameter XW
Ignoring BSIM parameter XL
Ignoring BSIM parameter XW
Warning: Pd = 0 is less than W.
Warning: Ps = 0 is less than W.
Warning: Pd = 0 is less than W.
Warning: Ps = 0 is less than W.
Warning: Pd = 0 is less than W.
Warning: Ps = 0 is less than W.
Warning: Pd = 0 is less than W.
Warning: Ps = 0 is less than W.
Direct Newton iteration for .op point succeeded.

Date: Sun Jan 26 00:20:09 2020
Total elapsed time: 0.521 seconds.

tnom = 27
temp = 27
method = modified trap
totiter = 6663
traniter = 6650
tranpoints = 2486
accept = 2317
rejected = 169
matrix size = 15
fillins = 0
solver = Normal
Matrix Compiler1: 1,37 KB object code size  0.4/0.2/[0.2]
Matrix Compiler2: 1,68 KB object code size  0.3/0.3/[0.2]


