Circuit: *** SPICE deck for cell dff2{lay} from library pixel

Ignoring BSIM parameter XL
Ignoring BSIM parameter XW
Ignoring BSIM parameter XL
Ignoring BSIM parameter XW
WARNING: Node RST#1PIN@244_POLYSILICON-1##1 is floating.

WARNING: Less than two connections to node RESET.  This node is used by V5.
Direct Newton iteration for .op point succeeded.

Date: Mon Jan 27 23:05:18 2020
Total elapsed time: 0.482 seconds.

tnom = 27
temp = 27
method = modified trap
totiter = 5624
traniter = 5595
tranpoints = 2480
accept = 2277
rejected = 203
matrix size = 82
fillins = 114
solver = Normal
Thread vector: 23.6/11.2[7] 12.8/3.8[7] 1.3/0.9[3] 0.5/0.7[1]  2592/500
Matrix Compiler1: 9,05 KB object code size  2.7/1.7/[1.3]
Matrix Compiler2: 8,25 KB object code size  1.4/1.7/[0.7]


