Circuit: *** SPICE deck for cell dff_4_column{lay} from library pixel

Ignoring BSIM parameter XL
Ignoring BSIM parameter XW
Ignoring BSIM parameter XL
Ignoring BSIM parameter XW
Direct Newton iteration failed to find .op point.  (Use ".option noopiter" to skip.)
Starting Gmin stepping
Gmin = 10
Gmin = 1.07374
Gmin = 0.115292
Gmin = 0.0123794
Gmin = 0.00132923
Gmin = 0.000142725
Gmin = 1.5325e-005
Gmin = 1.6455e-006
Gmin = 1.76685e-007
Gmin = 1.89714e-008
Gmin = 2.03704e-009
Gmin = 2.18725e-010
Gmin = 2.34854e-011
Gmin = 2.52173e-012
Gmin = 2.70769e-013
Gmin = 0
Gmin stepping succeeded in finding the operating point.


Date: Fri Feb 07 22:37:33 2020
Total elapsed time: 0.515 seconds.

tnom = 27
temp = 27
method = modified trap
totiter = 6266
traniter = 5846
tranpoints = 2577
accept = 2332
rejected = 245
matrix size = 26
fillins = 0
solver = Normal
Thread vector: 71.6/39.7[4] 16.4/4.5[4] 3.1/1.5[4] 0.3/0.5[1]  2592/500
Matrix Compiler1: 1,89 KB object code size  1.1/0.5/[0.4]
Matrix Compiler2: 3,48 KB object code size  0.7/0.8/[0.4]


