Circuit: *** SPICE deck for cell dff_16{lay} from library pixel

Ignoring BSIM parameter XL
Ignoring BSIM parameter XW
Ignoring BSIM parameter XL
Ignoring BSIM parameter XW
WARNING: Node DFF_4@0:DFF2@0:RST#1PIN@244_POLYSILICON-1##1 is floating.
WARNING: Node DFF_4@0:DFF2@0:CLKB#2PIN@124_POLYSILICON-1##5 is floating.
WARNING: Node DFF_4@0:DFF2@0:CLK#0NMOS@14_POLY-RIGHT##1 is floating.
WARNING: Node DFF_4@3:DFF2@0:NET@130#4PMOS@16_POLY-LEFT##0 is floating.

Direct Newton iteration failed to find .op point.  (Use ".option noopiter" to skip.)
Starting Gmin stepping
Gmin = 10
Gmin = 1.07374
Gmin = 0.115292
Gmin = 0.0123794
Gmin = 0.00132923
Gmin = 0.000142725
Gmin = 1.5325e-005
Gmin = 1.6455e-006
Gmin = 1.76685e-007
Gmin = 1.89714e-008
Gmin = 2.03704e-009
Gmin = 2.18725e-010
Gmin = 2.34854e-011
Gmin = 2.52173e-012
Gmin = 2.70769e-013
Gmin = 0
Gmin stepping succeeded in finding the operating point.


Date: Tue Jan 28 01:10:52 2020
Total elapsed time: 3.027 seconds.

tnom = 27
temp = 27
method = modified trap
totiter = 7394
traniter = 6921
tranpoints = 2937
accept = 2662
rejected = 275
matrix size = 1154
fillins = 2136
solver = Normal
Thread vector: 439.2/192.3[8] 176.0/55.1[8] 12.2/5.4[8] 4.1/7.4[1]  2592/500
Matrix Compiler1: 169 KB object code size  50.1/25.6/[20.9]
Matrix Compiler2: 129 KB object code size  17.0/20.9/[15.3]


