Circuit: *** SPICE deck for cell shift_4{lay} from library pixel

Ignoring BSIM parameter XL
Ignoring BSIM parameter XW
Ignoring BSIM parameter XL
Ignoring BSIM parameter XW
Direct Newton iteration for .op point succeeded.

Date: Sun Jan 26 00:36:56 2020
Total elapsed time: 1.094 seconds.

tnom = 27
temp = 27
method = modified trap
totiter = 8041
traniter = 8014
tranpoints = 3333
accept = 2953
rejected = 380
matrix size = 522
fillins = 916
solver = Normal
Thread vector: 153.6/71.1[8] 69.6/15.3[8] 5.7/2.1[8] 1.9/1.4[3]  2592/500
Matrix Compiler1: 72,1 KB object code size  21.3/10.8/[10.6]
Matrix Compiler2: 57,8 KB object code size  7.8/12.1/[5.0]


