Circuit: *** SPICE deck for cell Sim_Matrix_4096{lay} from library pixel

V3: both pins shorted together -- ignoring.
Ignoring BSIM parameter XL
Ignoring BSIM parameter XW
Ignoring BSIM parameter XL
Ignoring BSIM parameter XW
Early termination of direct N-R iteration.
Direct Newton iteration failed to find .op point.  (Use ".option noopiter" to skip.)
Starting Gmin stepping
Gmin = 10
Gmin = 1.07374
Gmin = 0.115292
Gmin = 0.0123794
Gmin = 0.00132923
Gmin = 0.000142725
Gmin = 1.5325e-005
Gmin = 1.6455e-006
Gmin = 1.76685e-007
Gmin = 1.89714e-008
Gmin = 2.03704e-009
Gmin = 2.18725e-010
Gmin = 2.34854e-011
Gmin = 2.52173e-012
Gmin = 2.70769e-013
Gmin = 0
Gmin stepping succeeded in finding the operating point.

Heightened Def Con from 4.2e-006 to 4.20001e-006
Heightened Def Con from 7.3e-006 to 7.305e-006
Heightened Def Con from 1e-005 to 1e-005
Heightened Def Con from 1.33e-005 to 1.3305e-005
Heightened Def Con from 1.45e-005 to 1.45e-005
Heightened Def Con from 1.48e-005 to 1.48008e-005
Heightened Def Con from 1.54e-005 to 1.54008e-005
Heightened Def Con from 1.6e-005 to 1.6e-005
Heightened Def Con from 1.66e-005 to 1.66008e-005
Heightened Def Con from 1.78e-005 to 1.78008e-005
Heightened Def Con from 1.9e-005 to 1.9e-005
Heightened Def Con from 1.93e-005 to 1.9305e-005
Heightened Def Con from 1.96e-005 to 1.96e-005
Heightened Def Con from 2.02e-005 to 2.02008e-005
Heightened Def Con from 2.05e-005 to 2.0505e-005
Heightened Def Con from 2.08e-005 to 2.08e-005
Heightened Def Con from 2.14e-005 to 2.14e-005
Heightened Def Con from 2.26e-005 to 2.26e-005
Heightened Def Con from 2.29e-005 to 2.29e-005
Heightened Def Con from 2.32e-005 to 2.32008e-005
Heightened Def Con from 2.44e-005 to 2.44e-005
Heightened Def Con from 2.5e-005 to 2.5e-005
Heightened Def Con from 2.53e-005 to 2.53e-005
Heightened Def Con from 2.68e-005 to 2.68008e-005
Heightened Def Con from 2.74e-005 to 2.74008e-005
Heightened Def Con from 2.86e-005 to 2.86e-005
Heightened Def Con from 2.89e-005 to 2.89e-005
Heightened Def Con from 2.92e-005 to 2.92e-005
Heightened Def Con from 3.01e-005 to 3.0105e-005
Heightened Def Con from 3.04e-005 to 3.04e-005
Heightened Def Con from 3.16e-005 to 3.16008e-005
Heightened Def Con from 3.22e-005 to 3.22e-005
Heightened Def Con from 3.28e-005 to 3.28e-005
Heightened Def Con from 3.37e-005 to 3.3705e-005
Heightened Def Con from 3.46e-005 to 3.46e-005

Date: Mon Mar 02 17:48:57 2020
Total elapsed time: 2750.586 seconds.

tnom = 27
temp = 27
method = modified trap
totiter = 44620
traniter = 44211
tranpoints = 15515
accept = 13204
rejected = 2346
matrix size = 63851
fillins = 53968
solver = Normal
Thread vector: 25844.9/12441.7[4] 12439.8/8785.7[3] 2008.2/1474.8[3] 1745.1/1261.8[3]  2592/500
Matrix Compiler1: 147 MB object code size  60827.2/21669.6/[21133.3]
Matrix Compiler2: 10,0 MB object code size  5785.4/3350.0/[3045.0]


