Circuit: *** SPICE deck for cell sim_dff_124{lay} from library pixel

V2: both pins shorted together -- ignoring.
Ignoring BSIM parameter XL
Ignoring BSIM parameter XW
Ignoring BSIM parameter XL
Ignoring BSIM parameter XW
Early termination of direct N-R iteration.
Direct Newton iteration failed to find .op point.  (Use ".option noopiter" to skip.)
Starting Gmin stepping
Gmin = 10
Gmin = 1.07374
Gmin = 0.115292
Gmin = 0.0123794
Gmin = 0.00132923
Gmin = 0.000142725
Gmin = 1.5325e-005
Gmin = 1.6455e-006
Gmin = 1.76685e-007
Gmin = 1.89714e-008
Gmin = 2.03704e-009
Gmin = 2.18725e-010
Gmin = 2.34854e-011
Gmin = 2.52173e-012
Gmin = 2.70769e-013
Gmin = 0
Gmin stepping succeeded in finding the operating point.


Date: Sat Feb 29 21:49:36 2020
Total elapsed time: 411.789 seconds.

tnom = 27
temp = 27
method = modified trap
totiter = 90326
traniter = 89923
tranpoints = 34857
accept = 30599
rejected = 4258
matrix size = 9052
fillins = 9662
solver = Normal
Thread vector: 4378.7/1830.1[8] 2348.2/1310.8[6] 254.1/176.8[3] 70.3/35.0[7]  2592/500
Matrix Compiler1: 1,54 MB object code size  836.4/474.9/[455.9]
Matrix Compiler2: 1,04 MB object code size  332.2/376.0/[309.2]


