Circuit: *** SPICE deck for cell Simulacion_Matrix_4096{lay} from library pixel

V3: both pins shorted together -- ignoring.
Ignoring BSIM parameter XL
Ignoring BSIM parameter XW
WARNING: Node MATRIX_1@0:MATRIX_2@0:MATRIX_6@0:MATRIX_1@0:MATRIX_4@4:PIXELV3@11:RESET#1PIN@103_POLYSILICON-1 is floating.
WARNING: Node MATRIX_1@0:MATRIX_2@0:MATRIX_6@0:MATRIX_1@0:MATRIX_4@4:PIXELV3@11:SELECT#2NMOS@2_POLY-LEFT##1 is floating.
WARNING: Node MATRIX_1@0:MATRIX_2@0:MATRIX_6@0:MATRIX_1@0:MATRIX_4@4:PIXELV3@16:RESET#1PIN@103_POLYSILICON-1 is floating.
WARNING: Node MATRIX_1@0:MATRIX_2@0:MATRIX_6@0:MATRIX_1@0:MATRIX_4@4:PIXELV3@16:SELECT#2NMOS@2_POLY-LEFT##1 is floating.
WARNING: Node MATRIX_1@0:MATRIX_2@0:MATRIX_6@0:MATRIX_1@0:MATRIX_4@6:PIXELV3@11:RESET#1PIN@103_POLYSILICON-1 is floating.
WARNING: Node MATRIX_1@0:MATRIX_2@0:MATRIX_6@0:MATRIX_1@0:MATRIX_4@6:PIXELV3@11:SELECT#2NMOS@2_POLY-LEFT##1 is floating.
WARNING: Node MATRIX_1@0:MATRIX_2@0:MATRIX_6@0:MATRIX_1@0:MATRIX_4@6:PIXELV3@16:RESET#1PIN@103_POLYSILICON-1 is floating.
WARNING: Node MATRIX_1@0:MATRIX_2@0:MATRIX_6@0:MATRIX_1@0:MATRIX_4@6:PIXELV3@16:SELECT#2NMOS@2_POLY-LEFT##1 is floating.
WARNING: Node MATRIX_1@0:MATRIX_2@0:MATRIX_6@0:MATRIX_1@2:MATRIX_4@4:PIXELV3@11:RESET#1PIN@103_POLYSILICON-1 is floating.
WARNING: Node MATRIX_1@0:MATRIX_2@0:MATRIX_6@0:MATRIX_1@2:MATRIX_4@4:PIXELV3@11:SELECT#2NMOS@2_POLY-LEFT##1 is floating.
WARNING: Node MATRIX_1@0:MATRIX_2@0:MATRIX_6@0:MATRIX_1@2:MATRIX_4@4:PIXELV3@16:RESET#1PIN@103_POLYSILICON-1 is floating.
WARNING: Node MATRIX_1@0:MATRIX_2@0:MATRIX_6@0:MATRIX_1@2:MATRIX_4@4:PIXELV3@16:SELECT#2NMOS@2_POLY-LEFT##1 is floating.
WARNING: Node MATRIX_1@0:MATRIX_2@0:MATRIX_6@0:MATRIX_1@2:MATRIX_4@6:PIXELV3@11:RESET#1PIN@103_POLYSILICON-1 is floating.
WARNING: Node MATRIX_1@0:MATRIX_2@0:MATRIX_6@0:MATRIX_1@2:MATRIX_4@6:PIXELV3@11:SELECT#2NMOS@2_POLY-LEFT##1 is floating.
WARNING: Node MATRIX_1@0:MATRIX_2@0:MATRIX_6@0:MATRIX_1@2:MATRIX_4@6:PIXELV3@16:RESET#1PIN@103_POLYSILICON-1 is floating.
WARNING: Node MATRIX_1@0:MATRIX_2@0:MATRIX_6@0:MATRIX_1@2:MATRIX_4@6:PIXELV3@16:SELECT#2NMOS@2_POLY-LEFT##1 is floating.
WARNING: Node MATRIX_1@0:MATRIX_2@0:MATRIX_6@2:MATRIX_1@0:MATRIX_4@4:PIXELV3@11:RESET#1PIN@103_POLYSILICON-1 is floating.
WARNING: Node MATRIX_1@0:MATRIX_2@0:MATRIX_6@2:MATRIX_1@0:MATRIX_4@4:PIXELV3@11:SELECT#2NMOS@2_POLY-LEFT##1 is floating.
WARNING: Node MATRIX_1@0:MATRIX_2@0:MATRIX_6@2:MATRIX_1@0:MATRIX_4@4:PIXELV3@16:RESET#1PIN@103_POLYSILICON-1 is floating.
WARNING: Node MATRIX_1@0:MATRIX_2@0:MATRIX_6@2:MATRIX_1@0:MATRIX_4@4:PIXELV3@16:SELECT#2NMOS@2_POLY-LEFT##1 is floating.
WARNING: Node MATRIX_1@0:MATRIX_2@0:MATRIX_6@2:MATRIX_1@0:MATRIX_4@6:PIXELV3@11:RESET#1PIN@103_POLYSILICON-1 is floating.
WARNING: Node MATRIX_1@0:MATRIX_2@0:MATRIX_6@2:MATRIX_1@0:MATRIX_4@6:PIXELV3@11:SELECT#2NMOS@2_POLY-LEFT##1 is floating.
WARNING: Node MATRIX_1@0:MATRIX_2@0:MATRIX_6@2:MATRIX_1@0:MATRIX_4@6:PIXELV3@16:RESET#1PIN@103_POLYSILICON-1 is floating.
WARNING: Node MATRIX_1@0:MATRIX_2@0:MATRIX_6@2:MATRIX_1@0:MATRIX_4@6:PIXELV3@16:SELECT#2NMOS@2_POLY-LEFT##1 is floating.
WARNING: Node MATRIX_1@0:MATRIX_2@0:MATRIX_6@2:MATRIX_1@2:MATRIX_4@4:PIXELV3@11:RESET#1PIN@103_POLYSILICON-1 is floating.
WARNING: Node MATRIX_1@0:MATRIX_2@0:MATRIX_6@2:MATRIX_1@2:MATRIX_4@4:PIXELV3@11:SELECT#2NMOS@2_POLY-LEFT##1 is floating.
WARNING: Node MATRIX_1@0:MATRIX_2@0:MATRIX_6@2:MATRIX_1@2:MATRIX_4@4:PIXELV3@16:RESET#1PIN@103_POLYSILICON-1 is floating.
WARNING: Node MATRIX_1@0:MATRIX_2@0:MATRIX_6@2:MATRIX_1@2:MATRIX_4@4:PIXELV3@16:SELECT#2NMOS@2_POLY-LEFT##1 is floating.
WARNING: Node MATRIX_1@0:MATRIX_2@0:MATRIX_6@2:MATRIX_1@2:MATRIX_4@6:PIXELV3@11:RESET#1PIN@103_POLYSILICON-1 is floating.
WARNING: Node MATRIX_1@0:MATRIX_2@0:MATRIX_6@2:MATRIX_1@2:MATRIX_4@6:PIXELV3@11:SELECT#2NMOS@2_POLY-LEFT##1 is floating.
WARNING: Node MATRIX_1@0:MATRIX_2@0:MATRIX_6@2:MATRIX_1@2:MATRIX_4@6:PIXELV3@16:RESET#1PIN@103_POLYSILICON-1 is floating.
WARNING: Node MATRIX_1@0:MATRIX_2@0:MATRIX_6@2:MATRIX_1@2:MATRIX_4@6:PIXELV3@16:SELECT#2NMOS@2_POLY-LEFT##1 is floating.
WARNING: Node MATRIX_1@0:MATRIX_2@2:MATRIX_6@0:MATRIX_1@0:MATRIX_4@4:PIXELV3@11:RESET#1PIN@103_POLYSILICON-1 is floating.
WARNING: Node MATRIX_1@0:MATRIX_2@2:MATRIX_6@0:MATRIX_1@0:MATRIX_4@4:PIXELV3@11:SELECT#2NMOS@2_POLY-LEFT##1 is floating.
WARNING: Node MATRIX_1@0:MATRIX_2@2:MATRIX_6@0:MATRIX_1@0:MATRIX_4@4:PIXELV3@16:RESET#1PIN@103_POLYSILICON-1 is floating.
WARNING: Node MATRIX_1@0:MATRIX_2@2:MATRIX_6@0:MATRIX_1@0:MATRIX_4@4:PIXELV3@16:SELECT#2NMOS@2_POLY-LEFT##1 is floating.
WARNING: Node MATRIX_1@0:MATRIX_2@2:MATRIX_6@0:MATRIX_1@0:MATRIX_4@6:PIXELV3@11:RESET#1PIN@103_POLYSILICON-1 is floating.
WARNING: Node MATRIX_1@0:MATRIX_2@2:MATRIX_6@0:MATRIX_1@0:MATRIX_4@6:PIXELV3@11:SELECT#2NMOS@2_POLY-LEFT##1 is floating.
WARNING: Node MATRIX_1@0:MATRIX_2@2:MATRIX_6@0:MATRIX_1@0:MATRIX_4@6:PIXELV3@16:RESET#1PIN@103_POLYSILICON-1 is floating.
WARNING: Node MATRIX_1@0:MATRIX_2@2:MATRIX_6@0:MATRIX_1@0:MATRIX_4@6:PIXELV3@16:SELECT#2NMOS@2_POLY-LEFT##1 is floating.
WARNING: Node MATRIX_1@0:MATRIX_2@2:MATRIX_6@0:MATRIX_1@2:MATRIX_4@4:PIXELV3@11:RESET#1PIN@103_POLYSILICON-1 is floating.
WARNING: Node MATRIX_1@0:MATRIX_2@2:MATRIX_6@0:MATRIX_1@2:MATRIX_4@4:PIXELV3@11:SELECT#2NMOS@2_POLY-LEFT##1 is floating.
WARNING: Node MATRIX_1@0:MATRIX_2@2:MATRIX_6@0:MATRIX_1@2:MATRIX_4@4:PIXELV3@16:RESET#1PIN@103_POLYSILICON-1 is floating.
WARNING: Node MATRIX_1@0:MATRIX_2@2:MATRIX_6@0:MATRIX_1@2:MATRIX_4@4:PIXELV3@16:SELECT#2NMOS@2_POLY-LEFT##1 is floating.
WARNING: Node MATRIX_1@0:MATRIX_2@2:MATRIX_6@0:MATRIX_1@2:MATRIX_4@6:PIXELV3@11:RESET#1PIN@103_POLYSILICON-1 is floating.
WARNING: Node MATRIX_1@0:MATRIX_2@2:MATRIX_6@0:MATRIX_1@2:MATRIX_4@6:PIXELV3@11:SELECT#2NMOS@2_POLY-LEFT##1 is floating.
WARNING: Node MATRIX_1@0:MATRIX_2@2:MATRIX_6@0:MATRIX_1@2:MATRIX_4@6:PIXELV3@16:RESET#1PIN@103_POLYSILICON-1 is floating.
WARNING: Node MATRIX_1@0:MATRIX_2@2:MATRIX_6@0:MATRIX_1@2:MATRIX_4@6:PIXELV3@16:SELECT#2NMOS@2_POLY-LEFT##1 is floating.
WARNING: Node MATRIX_1@0:MATRIX_2@2:MATRIX_6@2:MATRIX_1@0:MATRIX_4@4:PIXELV3@11:RESET#1PIN@103_POLYSILICON-1 is floating.
WARNING: Node MATRIX_1@0:MATRIX_2@2:MATRIX_6@2:MATRIX_1@0:MATRIX_4@4:PIXELV3@11:SELECT#2NMOS@2_POLY-LEFT##1 is floating.
WARNING: Node MATRIX_1@0:MATRIX_2@2:MATRIX_6@2:MATRIX_1@0:MATRIX_4@4:PIXELV3@16:RESET#1PIN@103_POLYSILICON-1 is floating.
WARNING: Node MATRIX_1@0:MATRIX_2@2:MATRIX_6@2:MATRIX_1@0:MATRIX_4@4:PIXELV3@16:SELECT#2NMOS@2_POLY-LEFT##1 is floating.
WARNING: Node MATRIX_1@0:MATRIX_2@2:MATRIX_6@2:MATRIX_1@0:MATRIX_4@6:PIXELV3@11:RESET#1PIN@103_POLYSILICON-1 is floating.
WARNING: Node MATRIX_1@0:MATRIX_2@2:MATRIX_6@2:MATRIX_1@0:MATRIX_4@6:PIXELV3@11:SELECT#2NMOS@2_POLY-LEFT##1 is floating.
WARNING: Node MATRIX_1@0:MATRIX_2@2:MATRIX_6@2:MATRIX_1@0:MATRIX_4@6:PIXELV3@16:RESET#1PIN@103_POLYSILICON-1 is floating.
WARNING: Node MATRIX_1@0:MATRIX_2@2:MATRIX_6@2:MATRIX_1@0:MATRIX_4@6:PIXELV3@16:SELECT#2NMOS@2_POLY-LEFT##1 is floating.
WARNING: Node MATRIX_1@0:MATRIX_2@2:MATRIX_6@2:MATRIX_1@2:MATRIX_4@4:PIXELV3@11:RESET#1PIN@103_POLYSILICON-1 is floating.
WARNING: Node MATRIX_1@0:MATRIX_2@2:MATRIX_6@2:MATRIX_1@2:MATRIX_4@4:PIXELV3@11:SELECT#2NMOS@2_POLY-LEFT##1 is floating.
WARNING: Node MATRIX_1@0:MATRIX_2@2:MATRIX_6@2:MATRIX_1@2:MATRIX_4@4:PIXELV3@16:RESET#1PIN@103_POLYSILICON-1 is floating.
WARNING: Node MATRIX_1@0:MATRIX_2@2:MATRIX_6@2:MATRIX_1@2:MATRIX_4@4:PIXELV3@16:SELECT#2NMOS@2_POLY-LEFT##1 is floating.
WARNING: Node MATRIX_1@0:MATRIX_2@2:MATRIX_6@2:MATRIX_1@2:MATRIX_4@6:PIXELV3@11:RESET#1PIN@103_POLYSILICON-1 is floating.
WARNING: Node MATRIX_1@0:MATRIX_2@2:MATRIX_6@2:MATRIX_1@2:MATRIX_4@6:PIXELV3@11:SELECT#2NMOS@2_POLY-LEFT##1 is floating.
WARNING: Node MATRIX_1@0:MATRIX_2@2:MATRIX_6@2:MATRIX_1@2:MATRIX_4@6:PIXELV3@16:RESET#1PIN@103_POLYSILICON-1 is floating.
WARNING: Node MATRIX_1@0:MATRIX_2@2:MATRIX_6@2:MATRIX_1@2:MATRIX_4@6:PIXELV3@16:SELECT#2NMOS@2_POLY-LEFT##1 is floating.
WARNING: Node MATRIX_1@2:MATRIX_2@0:MATRIX_6@0:MATRIX_1@0:MATRIX_4@4:PIXELV3@11:RESET#1PIN@103_POLYSILICON-1 is floating.
WARNING: Node MATRIX_1@2:MATRIX_2@0:MATRIX_6@0:MATRIX_1@0:MATRIX_4@4:PIXELV3@11:SELECT#2NMOS@2_POLY-LEFT##1 is floating.
WARNING: Node MATRIX_1@2:MATRIX_2@0:MATRIX_6@0:MATRIX_1@0:MATRIX_4@4:PIXELV3@16:RESET#1PIN@103_POLYSILICON-1 is floating.
WARNING: Node MATRIX_1@2:MATRIX_2@0:MATRIX_6@0:MATRIX_1@0:MATRIX_4@4:PIXELV3@16:SELECT#2NMOS@2_POLY-LEFT##1 is floating.
WARNING: Node MATRIX_1@2:MATRIX_2@0:MATRIX_6@0:MATRIX_1@0:MATRIX_4@6:PIXELV3@11:RESET#1PIN@103_POLYSILICON-1 is floating.
WARNING: Node MATRIX_1@2:MATRIX_2@0:MATRIX_6@0:MATRIX_1@0:MATRIX_4@6:PIXELV3@11:SELECT#2NMOS@2_POLY-LEFT##1 is floating.
WARNING: Node MATRIX_1@2:MATRIX_2@0:MATRIX_6@0:MATRIX_1@0:MATRIX_4@6:PIXELV3@16:RESET#1PIN@103_POLYSILICON-1 is floating.
WARNING: Node MATRIX_1@2:MATRIX_2@0:MATRIX_6@0:MATRIX_1@0:MATRIX_4@6:PIXELV3@16:SELECT#2NMOS@2_POLY-LEFT##1 is floating.
WARNING: Node MATRIX_1@2:MATRIX_2@0:MATRIX_6@0:MATRIX_1@2:MATRIX_4@4:PIXELV3@11:RESET#1PIN@103_POLYSILICON-1 is floating.
WARNING: Node MATRIX_1@2:MATRIX_2@0:MATRIX_6@0:MATRIX_1@2:MATRIX_4@4:PIXELV3@11:SELECT#2NMOS@2_POLY-LEFT##1 is floating.
WARNING: Node MATRIX_1@2:MATRIX_2@0:MATRIX_6@0:MATRIX_1@2:MATRIX_4@4:PIXELV3@16:RESET#1PIN@103_POLYSILICON-1 is floating.
WARNING: Node MATRIX_1@2:MATRIX_2@0:MATRIX_6@0:MATRIX_1@2:MATRIX_4@4:PIXELV3@16:SELECT#2NMOS@2_POLY-LEFT##1 is floating.
WARNING: Node MATRIX_1@2:MATRIX_2@0:MATRIX_6@0:MATRIX_1@2:MATRIX_4@6:PIXELV3@11:RESET#1PIN@103_POLYSILICON-1 is floating.
WARNING: Node MATRIX_1@2:MATRIX_2@0:MATRIX_6@0:MATRIX_1@2:MATRIX_4@6:PIXELV3@11:SELECT#2NMOS@2_POLY-LEFT##1 is floating.
WARNING: Node MATRIX_1@2:MATRIX_2@0:MATRIX_6@0:MATRIX_1@2:MATRIX_4@6:PIXELV3@16:RESET#1PIN@103_POLYSILICON-1 is floating.
WARNING: Node MATRIX_1@2:MATRIX_2@0:MATRIX_6@0:MATRIX_1@2:MATRIX_4@6:PIXELV3@16:SELECT#2NMOS@2_POLY-LEFT##1 is floating.
WARNING: Node MATRIX_1@2:MATRIX_2@0:MATRIX_6@2:MATRIX_1@0:MATRIX_4@4:PIXELV3@11:RESET#1PIN@103_POLYSILICON-1 is floating.
WARNING: Node MATRIX_1@2:MATRIX_2@0:MATRIX_6@2:MATRIX_1@0:MATRIX_4@4:PIXELV3@11:SELECT#2NMOS@2_POLY-LEFT##1 is floating.
WARNING: Node MATRIX_1@2:MATRIX_2@0:MATRIX_6@2:MATRIX_1@0:MATRIX_4@4:PIXELV3@16:RESET#1PIN@103_POLYSILICON-1 is floating.
WARNING: Node MATRIX_1@2:MATRIX_2@0:MATRIX_6@2:MATRIX_1@0:MATRIX_4@4:PIXELV3@16:SELECT#2NMOS@2_POLY-LEFT##1 is floating.
WARNING: Node MATRIX_1@2:MATRIX_2@0:MATRIX_6@2:MATRIX_1@0:MATRIX_4@6:PIXELV3@11:RESET#1PIN@103_POLYSILICON-1 is floating.
WARNING: Node MATRIX_1@2:MATRIX_2@0:MATRIX_6@2:MATRIX_1@0:MATRIX_4@6:PIXELV3@11:SELECT#2NMOS@2_POLY-LEFT##1 is floating.
WARNING: Node MATRIX_1@2:MATRIX_2@0:MATRIX_6@2:MATRIX_1@0:MATRIX_4@6:PIXELV3@16:RESET#1PIN@103_POLYSILICON-1 is floating.
WARNING: Node MATRIX_1@2:MATRIX_2@0:MATRIX_6@2:MATRIX_1@0:MATRIX_4@6:PIXELV3@16:SELECT#2NMOS@2_POLY-LEFT##1 is floating.
WARNING: Node MATRIX_1@2:MATRIX_2@0:MATRIX_6@2:MATRIX_1@2:MATRIX_4@4:PIXELV3@11:RESET#1PIN@103_POLYSILICON-1 is floating.
WARNING: Node MATRIX_1@2:MATRIX_2@0:MATRIX_6@2:MATRIX_1@2:MATRIX_4@4:PIXELV3@11:SELECT#2NMOS@2_POLY-LEFT##1 is floating.
WARNING: Node MATRIX_1@2:MATRIX_2@0:MATRIX_6@2:MATRIX_1@2:MATRIX_4@4:PIXELV3@16:RESET#1PIN@103_POLYSILICON-1 is floating.
WARNING: Node MATRIX_1@2:MATRIX_2@0:MATRIX_6@2:MATRIX_1@2:MATRIX_4@4:PIXELV3@16:SELECT#2NMOS@2_POLY-LEFT##1 is floating.
WARNING: Node MATRIX_1@2:MATRIX_2@0:MATRIX_6@2:MATRIX_1@2:MATRIX_4@6:PIXELV3@11:RESET#1PIN@103_POLYSILICON-1 is floating.
WARNING: Node MATRIX_1@2:MATRIX_2@0:MATRIX_6@2:MATRIX_1@2:MATRIX_4@6:PIXELV3@11:SELECT#2NMOS@2_POLY-LEFT##1 is floating.
WARNING: Node MATRIX_1@2:MATRIX_2@0:MATRIX_6@2:MATRIX_1@2:MATRIX_4@6:PIXELV3@16:RESET#1PIN@103_POLYSILICON-1 is floating.
WARNING: Node MATRIX_1@2:MATRIX_2@0:MATRIX_6@2:MATRIX_1@2:MATRIX_4@6:PIXELV3@16:SELECT#2NMOS@2_POLY-LEFT##1 is floating.
WARNING: Node MATRIX_1@2:MATRIX_2@2:MATRIX_6@0:MATRIX_1@0:MATRIX_4@4:PIXELV3@11:RESET#1PIN@103_POLYSILICON-1 is floating.
WARNING: Node MATRIX_1@2:MATRIX_2@2:MATRIX_6@0:MATRIX_1@0:MATRIX_4@4:PIXELV3@11:SELECT#2NMOS@2_POLY-LEFT##1 is floating.
WARNING: Node MATRIX_1@2:MATRIX_2@2:MATRIX_6@0:MATRIX_1@0:MATRIX_4@4:PIXELV3@16:RESET#1PIN@103_POLYSILICON-1 is floating.
WARNING: Node MATRIX_1@2:MATRIX_2@2:MATRIX_6@0:MATRIX_1@0:MATRIX_4@4:PIXELV3@16:SELECT#2NMOS@2_POLY-LEFT##1 is floating.
WARNING: Node MATRIX_1@2:MATRIX_2@2:MATRIX_6@0:MATRIX_1@0:MATRIX_4@6:PIXELV3@11:RESET#1PIN@103_POLYSILICON-1 is floating.
WARNING: Node MATRIX_1@2:MATRIX_2@2:MATRIX_6@0:MATRIX_1@0:MATRIX_4@6:PIXELV3@11:SELECT#2NMOS@2_POLY-LEFT##1 is floating.
WARNING: Node MATRIX_1@2:MATRIX_2@2:MATRIX_6@0:MATRIX_1@0:MATRIX_4@6:PIXELV3@16:RESET#1PIN@103_POLYSILICON-1 is floating.
WARNING: Node MATRIX_1@2:MATRIX_2@2:MATRIX_6@0:MATRIX_1@0:MATRIX_4@6:PIXELV3@16:SELECT#2NMOS@2_POLY-LEFT##1 is floating.
WARNING: Node MATRIX_1@2:MATRIX_2@2:MATRIX_6@0:MATRIX_1@2:MATRIX_4@4:PIXELV3@11:RESET#1PIN@103_POLYSILICON-1 is floating.
WARNING: Node MATRIX_1@2:MATRIX_2@2:MATRIX_6@0:MATRIX_1@2:MATRIX_4@4:PIXELV3@11:SELECT#2NMOS@2_POLY-LEFT##1 is floating.
WARNING: Node MATRIX_1@2:MATRIX_2@2:MATRIX_6@0:MATRIX_1@2:MATRIX_4@4:PIXELV3@16:RESET#1PIN@103_POLYSILICON-1 is floating.
WARNING: Node MATRIX_1@2:MATRIX_2@2:MATRIX_6@0:MATRIX_1@2:MATRIX_4@4:PIXELV3@16:SELECT#2NMOS@2_POLY-LEFT##1 is floating.
WARNING: Node MATRIX_1@2:MATRIX_2@2:MATRIX_6@0:MATRIX_1@2:MATRIX_4@6:PIXELV3@11:RESET#1PIN@103_POLYSILICON-1 is floating.
WARNING: Node MATRIX_1@2:MATRIX_2@2:MATRIX_6@0:MATRIX_1@2:MATRIX_4@6:PIXELV3@11:SELECT#2NMOS@2_POLY-LEFT##1 is floating.
WARNING: Node MATRIX_1@2:MATRIX_2@2:MATRIX_6@0:MATRIX_1@2:MATRIX_4@6:PIXELV3@16:RESET#1PIN@103_POLYSILICON-1 is floating.
WARNING: Node MATRIX_1@2:MATRIX_2@2:MATRIX_6@0:MATRIX_1@2:MATRIX_4@6:PIXELV3@16:SELECT#2NMOS@2_POLY-LEFT##1 is floating.
WARNING: Node MATRIX_1@2:MATRIX_2@2:MATRIX_6@2:MATRIX_1@0:MATRIX_4@4:PIXELV3@11:RESET#1PIN@103_POLYSILICON-1 is floating.
WARNING: Node MATRIX_1@2:MATRIX_2@2:MATRIX_6@2:MATRIX_1@0:MATRIX_4@4:PIXELV3@11:SELECT#2NMOS@2_POLY-LEFT##1 is floating.
WARNING: Node MATRIX_1@2:MATRIX_2@2:MATRIX_6@2:MATRIX_1@0:MATRIX_4@4:PIXELV3@16:RESET#1PIN@103_POLYSILICON-1 is floating.
WARNING: Node MATRIX_1@2:MATRIX_2@2:MATRIX_6@2:MATRIX_1@0:MATRIX_4@4:PIXELV3@16:SELECT#2NMOS@2_POLY-LEFT##1 is floating.
WARNING: Node MATRIX_1@2:MATRIX_2@2:MATRIX_6@2:MATRIX_1@0:MATRIX_4@6:PIXELV3@11:RESET#1PIN@103_POLYSILICON-1 is floating.
WARNING: Node MATRIX_1@2:MATRIX_2@2:MATRIX_6@2:MATRIX_1@0:MATRIX_4@6:PIXELV3@11:SELECT#2NMOS@2_POLY-LEFT##1 is floating.
WARNING: Node MATRIX_1@2:MATRIX_2@2:MATRIX_6@2:MATRIX_1@0:MATRIX_4@6:PIXELV3@16:RESET#1PIN@103_POLYSILICON-1 is floating.
WARNING: Node MATRIX_1@2:MATRIX_2@2:MATRIX_6@2:MATRIX_1@0:MATRIX_4@6:PIXELV3@16:SELECT#2NMOS@2_POLY-LEFT##1 is floating.
WARNING: Node MATRIX_1@2:MATRIX_2@2:MATRIX_6@2:MATRIX_1@2:MATRIX_4@4:PIXELV3@11:RESET#1PIN@103_POLYSILICON-1 is floating.
WARNING: Node MATRIX_1@2:MATRIX_2@2:MATRIX_6@2:MATRIX_1@2:MATRIX_4@4:PIXELV3@11:SELECT#2NMOS@2_POLY-LEFT##1 is floating.
WARNING: Node MATRIX_1@2:MATRIX_2@2:MATRIX_6@2:MATRIX_1@2:MATRIX_4@4:PIXELV3@16:RESET#1PIN@103_POLYSILICON-1 is floating.
WARNING: Node MATRIX_1@2:MATRIX_2@2:MATRIX_6@2:MATRIX_1@2:MATRIX_4@4:PIXELV3@16:SELECT#2NMOS@2_POLY-LEFT##1 is floating.
WARNING: Node MATRIX_1@2:MATRIX_2@2:MATRIX_6@2:MATRIX_1@2:MATRIX_4@6:PIXELV3@11:RESET#1PIN@103_POLYSILICON-1 is floating.
WARNING: Node MATRIX_1@2:MATRIX_2@2:MATRIX_6@2:MATRIX_1@2:MATRIX_4@6:PIXELV3@11:SELECT#2NMOS@2_POLY-LEFT##1 is floating.
WARNING: Node MATRIX_1@2:MATRIX_2@2:MATRIX_6@2:MATRIX_1@2:MATRIX_4@6:PIXELV3@16:RESET#1PIN@103_POLYSILICON-1 is floating.
WARNING: Node MATRIX_1@2:MATRIX_2@2:MATRIX_6@2:MATRIX_1@2:MATRIX_4@6:PIXELV3@16:SELECT#2NMOS@2_POLY-LEFT##1 is floating.

Early termination of direct N-R iteration.
Direct Newton iteration failed to find .op point.  (Use ".option noopiter" to skip.)
Starting Gmin stepping
Gmin = 10
Gmin = 1.07374
Gmin = 0.115292
Gmin = 0.0123794
Gmin = 0.00132923
Gmin = 0.000142725
Gmin = 1.5325e-005
Gmin = 1.6455e-006
Gmin = 1.76685e-007
Gmin = 1.89714e-008
Gmin = 2.03704e-009
Gmin = 2.18725e-010
Gmin = 2.34854e-011
Gmin = 2.52173e-012
Gmin = 2.70769e-013
Gmin = 0
Gmin stepping succeeded in finding the operating point.


Date: Mon Jan 20 15:54:58 2020
Total elapsed time: 402.137 seconds.

tnom = 27
temp = 27
method = modified trap
totiter = 3347
traniter = 3017
tranpoints = 1438
accept = 1387
rejected = 51
matrix size = 48602
fillins = 33818
solver = Normal
Thread vector: 20245.9/9751.7[4] 9494.1/6906.0[3] 1588.3/1282.9[2] 1312.4/1096.8[2]  2592/500
Matrix Compiler1: 118 MB object code size  40987.3/16104.7/[16078.4]
Matrix Compiler2: 7,91 MB object code size  4437.5/2693.8/[2303.4]


