Circuit: * G:\Mi unidad\Universidad\Semestre Actual\CMOS Image Sensor\Simulaciones 3\buffer.asc

Ignoring BSIM parameter XL
Ignoring BSIM parameter XW

Date: Tue Feb 11 00:31:27 2020
Total elapsed time: 0.228 seconds.

tnom = 27
temp = 27
method = trap
totiter = 10004
traniter = 0
tranpoints = 0
accept = 0
rejected = 0
matrix size = 8
fillins = 0
solver = Normal
Matrix Compiler1: 210 bytes object code size  0.1/0.1/[0.0]
Matrix Compiler2: 500 bytes object code size  0.1/0.1/[0.1]

