Circuit: * G:\Mi unidad\Universidad\Semestre Actual\CMOS Image Sensor\Simulaciones 3\column_vias.asc

Ignoring BSIM parameter XL
Ignoring BSIM parameter XW

Date: Fri Jan 31 23:41:17 2020
Total elapsed time: 0.181 seconds.

tnom = 27
temp = 27
method = trap
totiter = 10005
traniter = 0
tranpoints = 0
accept = 0
rejected = 0
matrix size = 8
fillins = 0
solver = Normal
Matrix Compiler1: 372 bytes object code size  0.2/0.1/[0.1]
Matrix Compiler2: 644 bytes object code size  0.1/0.2/[0.1]

