Circuit: *

Ignoring BSIM parameter XL
Ignoring BSIM parameter XW
Ignoring BSIM parameter XL
Ignoring BSIM parameter XW
WARNING: Less than two connections to node VSWCURRENT4.  This node is used by V10.
WARNING: Less than two connections to node OUT.  This node is used by E1.
Direct Newton iteration for .op point succeeded.

vout1: v(out)=2.57357 at 0.00495
vout2: v(out)=0.318557 at 0.00925
vout3: v(out)=0.326928 at 0.01425
vout4: v(out)=0.326466 at 0.01925


Date: Tue Sep 10 13:55:40 2019
Total elapsed time: 0.170 seconds.

tnom = 27
temp = 27
method = modified trap
totiter = 10160
traniter = 10126
tranpoints = 4077
accept = 3756
rejected = 321
matrix size = 44
fillins = 0
solver = Normal
Matrix Compiler1: 1.47 KB object code size  0.4/0.2/[0.1]
Matrix Compiler2: off  [0.2]/0.5/0.3

