Circuit: * hola

Ignoring BSIM parameter XL
Ignoring BSIM parameter XW
WARNING: Less than two connections to node VSWCURRENT4.  This node is used by V10.
Direct Newton iteration for .op point succeeded.

SPICE directive ".backanno" has no meaning for netlists.
vout1: v(out)=0.0436441 at 0.00425

Measurement "vout2" FAIL'ed

Measurement "vout3" FAIL'ed

Measurement "vout4" FAIL'ed


Date: Fri Sep 06 17:20:19 2019
Total elapsed time: 0.062 seconds.

tnom = 27
temp = 27
method = modified trap
totiter = 3220
traniter = 3189
tranpoints = 1453
accept = 1413
rejected = 40
matrix size = 26
fillins = 0
solver = Normal
Matrix Compiler1: 732 bytes object code size  0.3/0.1/[0.0]
Matrix Compiler2: 1.61 KB object code size  0.2/0.3/[0.1]

